resultados/ano3/LineSummary.csv
line,maxCurrentA,normAmps,maxLoadingPct,meanLoadingPct,overloadHours
rbt_1607347,93.19431632937508,124.95,74.58528717837142,25.74713569351782,0
sbt_7584,93.19432641874256,163.8,56.8951931738355,19.640444839962747,0
sbt_22840,93.1943217982853,163.8,56.895190353043525,19.640444764570198,0
rbt_630758,30.832489912267732,76.65,40.22503576290637,17.811556158834676,0
rbt_637576,24.665719440332936,61.95,39.81552774872144,14.765450918766506,0
rbt_632607,49.00620094050663,124.95,39.22064901201011,18.461770219923938,0
rbt_1130761,30.428192330609697,90.3,33.696779989601,15.859266096708678,0
rbt_606147,25.292424936338048,76.65,32.99729280670326,12.486866346601486,0
rbt_605836,25.829499443095685,90.3,28.604096836207848,13.472165996508416,0
rbt_637360,17.661410605729213,61.95,28.509137378093968,13.394196584373757,0
rbt_637918,17.623867605683305,61.95,28.448535279553354,11.429938871027941,0
rbt_626476,15.259793383046835,61.95,24.632434839462203,11.590566636929557,0
rbt_1607350,21.935760280885038,90.3,24.292093334313442,8.845732035641586,0
rbt_606126,13.52253886488741,61.95,21.828149902965958,7.8487393728430215,0
rbt_3405844,18.941620128437993,90.3,20.97632350879069,7.268761731749596,0
rbt_1633671,12.992212433951696,61.95,20.97209432437723,10.406478445029903,0
rbt_1627323,15.018905194263642,76.65,19.59413593511238,9.21930159667619,0
rbt_606143,14.82494354166273,76.65,19.341087464661094,6.8916638223450235,0
sbt_34378,24.656761049768416,128.1,19.24805702558034,9.445166718859165,0
sbt_34379,24.579793563373332,128.1,19.187973117387457,9.309572220091981,0
rbt_637397,11.714906339165646,61.95,18.91026043448853,8.888059459659562,0
rbt_635862,10.77443456160879,61.95,17.392146185002083,5.997585802979021,0
rbt_3435739,13.11519685718343,76.65,17.110498182887707,8.495358493921676,0
rbt_605816,10.170574018168592,61.95,16.41739147404131,6.288691542546331,0
smt_29422,26.143993509673177,163.8,15.96092399857947,9.778682112002887,0
smt_19119,26.141399596443588,163.8,15.959340412969222,9.77948671486424,0
smt_17184,26.140218596295554,163.8,15.958619411657846,9.77897399832768,0
sbt_24791,25.29244620319516,163.8,15.441053848104492,5.843213738270948,0
sbt_3174,25.292437341610157,163.8,15.441048438101438,5.84321534896752,0
rbt_609688,11.164679013464212,76.65,14.565791276535176,5.384886914336989,0
rbt_1638954,8.57848478673449,61.95,13.84743306978933,6.509386406643917,0
rbt_1607265,12.050358106224666,90.3,13.344804104346252,6.280828393307121,0
rbt_606139,9.29729531119138,76.65,12.129543784985492,4.3991839168993865,0
sbt_9361,25.82949952517589,216.3,11.941516192869111,5.6243022845545925,0
rbt_623004,7.222613790327648,61.95,11.658779322562788,4.638491873789047,0
rbt_606121,6.961822182655631,61.95,11.237808204448152,5.2802066960080705,0
sbt_11363,18.013893286178696,163.8,10.997492848704942,4.169925882614392,0
rbt_1605991,6.657592077761998,61.95,10.7467184467506,5.052746873948926,0
rbt_1607280,6.604935440414496,61.95,10.66171983924858,5.010686780212395,0
sbt_34393,13.28840161941312,128.1,10.37345949993218,6.820008859909314,0
rbt_606114,9.030053307739385,90.3,10.000059034041401,4.700675829470471,0
rbt_627337,8.789999720858685,90.3,9.734218959976396,4.57772244648285,0
rbt_1621994,8.623770601052241,90.3,9.550133555982548,4.4881584240667385,0
rbt_626678,8.425015451977897,90.3,9.330028186022036,4.388031229564609,0
rbt_635543,5.769887812778939,61.95,9.313781780111281,3.7848883531565516,0
rbt_606150,5.734882459852234,61.95,9.257275964248965,4.348998590452946,0
rbt_1607272,8.253816608676987,90.3,9.140439212266873,4.301160710134907,0
smt_34713,26.127125593519782,286.65,9.114643500268544,5.5847555662773445,0
smt_34700,26.12697197895394,286.65,9.114589910676415,5.584717876296029,0
smt_34701,26.126608087828536,286.65,9.11446296453115,5.584628612610917,0
smt_34715,26.126296899853816,286.65,9.114354404274836,5.584552297864092,0
smt_34702,26.125988671503904,286.65,9.11424687650581,5.58447672768352,0
smt_34703,26.12556645377657,286.65,9.114099582688496,5.584373240449755,0
smt_34704,26.12505885999041,286.65,9.113922504793445,5.584248873627441,0
smt_34716,26.124741600606082,286.65,9.113811826480406,5.584171166881981,0
smt_34705,26.12442261216559,286.65,9.113700544973169,5.584093056594266,0
smt_34717,26.124042498377392,286.65,9.113567939430453,5.584000004794949,0
smt_34706,26.123657623223522,286.65,9.11343367284965,5.583905816384924,0
smt_34707,26.12320444792368,286.65,9.11327557925124,5.583794950569152,0
smt_34708,26.12278220641193,286.65,9.113128277136553,5.5836916888473525,0
smt_34709,26.122237282613415,286.65,9.112938176387027,5.583558476258699,0
smt_34718,26.12193370989092,286.65,9.112832272768506,5.583484289924809,0
smt_34710,26.12163683204748,286.65,9.112728704708697,5.583411757182364,0
smt_34719,26.12132632194428,286.65,9.112620380932944,5.583335912363638,0
smt_34711,26.12101680629905,286.65,9.112512404081302,5.583260329351724,0
smt_34720,26.120663893034003,286.65,9.112389287644865,5.583174171687689,0
smt_34712,26.12033830478918,286.65,9.112275703746443,5.58309470667174,0
smt_34721,26.12010467266875,286.65,9.112194199430926,5.583037697765826,0
smt_34714,26.120095066576013,286.65,9.112190848273508,5.583035353962209,0
rbt_623007,5.640051202218745,61.95,9.104198873638007,4.277694320697186,0
sbt_22748,19.521205841800068,216.3,9.02506049089231,4.246959068920725,0
sbt_7427,19.521197691515457,216.3,9.025056722845795,4.246955165389969,0
sbt_34383,11.547855122485503,128.1,9.014719065172134,5.310889326799193,0
sbt_34392,11.547852003754578,128.1,9.014716630565635,5.652224685011464,0
sbt_34384,11.532946981643388,128.1,9.003081172243082,4.349208191344652,0
rbt_1630759,6.825078721017349,76.65,8.904212290955444,4.188703031364869,0
rbt_606122,5.5122006180291905,61.95,8.897821820870364,4.182355787734584,0
rbt_1229546,8.00081611854449,90.3,8.860261482330554,4.167115417719199,0
rbt_1638606,5.458532205772289,61.95,8.811190001246633,4.143330373880448,0
rbt_605905,7.808933199922654,90.3,8.647766555839041,4.0654224584710414,0
rbt_1607283,7.73036815619015,90.3,8.560762077729954,4.027547577671798,0
smt_31417,27.900141722204218,327.6,8.516526777229615,5.242129256039379,0
smt_31416,27.90009367186938,327.6,8.516512109850238,5.242118932621438,0
smt_31411,27.900075359924738,327.6,8.516506520123546,5.242114998738272,0
smt_31412,27.900054638358057,327.6,8.51650019485899,5.2421105470935645,0
smt_31413,27.899931766807352,327.6,8.516462688280631,5.242084151798648,0
smt_31414,27.89983943021325,327.6,8.516434502507098,5.242064317579056,0
smt_31415,27.89960545597185,327.6,8.51636308179849,5.242014064931655,0
smt_4387,27.899220677911387,327.6,8.51624562817808,5.241931441467792,0
smt_4863,27.898776696759068,327.6,8.516110102795809,5.241836133990346,0
smt_4693,27.898404211786225,327.6,8.515996401644147,5.24175619802111,0
smt_17964,27.89817801452101,327.6,8.515927354859892,5.233017862524272,0
smt_4591,27.898063799763808,327.6,8.515892490770392,5.241683163857779,0
smt_6826,27.89771513581376,327.6,8.51578606099321,5.232918006637915,0
smt_4627,27.89770253409127,327.6,8.515782214313573,5.241605675408931,0
smt_4527,27.897413566003152,327.6,8.515694006716467,5.24154370882085,0
smt_7012,27.897180803920136,327.6,8.515622956019577,5.23280277800352,0
smt_23134,27.896943791545375,327.6,8.515550607919833,5.241442997745005,0
smt_22791,27.896701972831483,327.6,8.515476792683602,5.23269955606949,0
smt_18545,27.896522577493148,327.6,8.515422032201815,5.241352726406287,0
smt_7020,27.896142989109062,327.6,8.515306162731703,5.232579100943394,0
smt_10381,27.896076303887014,327.6,8.515285807047318,5.24125711465983,0
smt_18806,27.89585085128585,327.6,8.515216987571993,5.241208824451186,0
smt_24122,27.895777478607712,327.6,8.515194590539595,5.241193110146102,0
smt_6842,27.8957128581091,327.6,8.515174865112666,5.232486445495061,0
smt_6830,27.895060307094994,327.6,8.51497567371642,5.2323459333270295,0
smt_31407,27.894275423523727,327.6,8.514736087766703,5.232177014491792,0
smt_29390,27.893903895735104,327.6,8.514622678795819,5.232187279529453,0
smt_31408,27.893794727026798,327.6,8.514589355014285,5.240583477591189,0
smt_17776,27.89327308943009,327.6,8.51443012497866,5.232050401865819,0
smt_10747,27.892631151544503,327.6,8.514234173243132,5.231911172765486,0
smt_18202,27.892073667405796,327.6,8.51406400103962,5.231790313123371,0
smt_17794,27.89155632746396,327.6,8.513906082864455,5.231678200052284,0
smt_29420,27.891236659123095,327.6,8.513808504005828,5.231608945499187,0
smt_22739,27.891049841071947,327.6,8.513751477738689,5.2315684796792645,0
smt_17795,27.890433837391686,327.6,8.513563442427253,5.23143508863253,0
smt_29389,27.88974658227775,327.6,8.51335365759394,5.231286338707268,0
smt_19163,27.889154363055084,327.6,8.513172882495446,5.231158217713619,0
smt_17961,27.888776902544063,327.6,8.513057662559238,5.2310765863337725,0
smt_29388,27.888341556563514,327.6,8.512924773065784,5.23098246404757,0
smt_17962,27.887806476672324,327.6,8.512761439765667,5.230866819780504,0
rbt_1107340,7.401268591895946,90.3,8.196310732996618,3.857321169062576,0
rbt_1626486,7.400752486268369,90.3,8.195739187451128,3.851479365407125,0
rbt_605822,7.400526321251592,90.3,8.195488727853368,3.857103371455159,0
rbt_1607287,7.393959904656481,90.3,8.188216948678274,3.8517683691275715,0
smt_6447,26.205877580468886,327.6,7.999352130790258,4.903278299624652,0
smt_6627,26.20548469104276,327.6,7.999232201173003,4.903195300893896,0
smt_24630,26.204858300303243,327.6,7.99904099520856,4.9030630289459785,0
smt_24629,26.2044717819752,327.6,7.998923010370939,4.902981443093068,0
smt_24628,26.20395644269163,327.6,7.998765702897323,4.902872705466936,0
smt_24627,26.20357382381942,327.6,7.998648908369785,4.90279200136176,0
smt_6957,26.203215884743614,327.6,7.998539647357634,4.902716525455145,0
smt_6431,26.202770410103543,327.6,7.998403666087772,4.90262262206472,0
smt_24626,26.202399674837146,327.6,7.998290499034537,4.902544499093015,0
smt_12228,26.201996572404145,327.6,7.998167451893816,4.902459582094079,0
rbt_606132,4.9456342837486265,61.95,7.983267608956621,3.7509627563339847,0
smt_6510,26.151345947155505,327.6,7.982706333075551,4.890900439189699,0
smt_19223,26.15080282620325,327.6,7.982540545239086,4.8907849312084,0
smt_22843,26.150340515351658,327.6,7.982399424710518,4.89068664931425,0
smt_6737,26.14993726321072,327.6,7.982276331871403,4.8906009525657295,0
smt_24665,26.149411764481368,327.6,7.98211592322386,4.890489318593528,0
smt_24635,26.148868852495866,327.6,7.981950199174562,4.89037403516035,0
smt_24637,26.148307058198878,327.6,7.981778711293918,4.8902547954463484,0
smt_24636,26.14775764804278,327.6,7.981611003676062,4.890138236562091,0
smt_19174,26.14725740412266,327.6,7.981458304066745,4.890032153470677,0
smt_6686,26.146667241984456,327.6,7.981278156893912,4.889907057235611,0
smt_19173,26.14567475664367,327.6,7.980975200440679,4.889696815459336,0
smt_19172,26.145339366958353,327.6,7.98087282263686,4.889625806816574,0
smt_6544,26.144973387178165,327.6,7.9807611071972415,4.8895483436141145,0
smt_6535,26.144432418985847,327.6,7.980595976491406,4.889433884463032,0
smt_24634,26.14324975392079,327.6,7.980234967619289,4.889183828082118,0
smt_24633,26.14282769001095,327.6,7.980106132481975,4.889094646870567,0
smt_24632,26.142373649523968,327.6,7.979967536484728,4.888998743143604,0
smt_1873,26.14192676026456,327.6,7.97983112340188,4.888904384423889,0
smt_24631,26.14152631124136,327.6,7.979708886215311,4.888819860432276,0
smt_6527,26.141110265815364,327.6,7.979581888222027,4.88873207353414,0
smt_24511,26.14087031420008,327.6,7.9795086429182165,4.8896284369627905,0
smt_29446,26.140204358862032,327.6,7.979305359847995,4.88948391027563,0
smt_32671,26.139765132069332,327.6,7.9791712857354495,4.889388630897925,0
smt_6389,26.13928027590169,327.6,7.979023283242273,4.889283492257385,0
smt_24510,26.13926538535971,327.6,7.979018737899788,4.889280263768809,0
smt_24509,26.138749869874005,327.6,7.978861376640416,4.889168522870389,0
smt_24508,26.13829797038133,327.6,7.978723434182335,4.889070609037987,0
smt_6426,26.137890576810452,327.6,7.978599077170467,4.888982368728111,0
smt_6420,26.137475208584092,327.6,7.978472285892579,4.888892430750397,0
smt_6140,26.137026347965136,327.6,7.978335271051629,4.888795274413886,0
smt_6653,26.136598195149123,327.6,7.978204577273846,4.888702632877185,0
smt_6650,26.136176308276834,327.6,7.978075796177299,4.88861137818813,0
smt_29445,26.135762450097133,327.6,7.977949465841615,4.888521890104156,0
smt_24507,26.13533668762661,327.6,7.977819501717523,4.888429858926339,0
smt_24506,26.134912359596967,327.6,7.977689975456949,4.888338169079124,0
smt_24505,26.13447446320342,327.6,7.977556307449152,4.888243580029999,0
smt_24459,26.134098720691007,327.6,7.977441611932541,4.888162443217492,0
smt_24458,26.13364612172971,327.6,7.97730345596145,4.888064742691543,0
smt_24457,26.133190674112086,327.6,7.977164430437145,4.88796646305423,0
smt_24456,26.132771858314687,327.6,7.977036586787143,4.8878761197654415,0
smt_24455,26.13234188794153,327.6,7.976905338199488,4.887783401984,0
smt_24454,26.131929368086773,327.6,7.976779416387904,4.887694477223243,0
smt_19165,26.131473861234088,327.6,7.976640372782078,4.887596320228166,0
smt_17113,26.130997572611182,327.6,7.976494985534549,4.88749372339728,0
smt_6993,26.129952558075942,327.6,7.976175994528675,4.887268755510573,0
smt_24453,26.129318422478747,327.6,7.975982424444061,4.887132332617448,0
smt_24452,26.128827579879342,327.6,7.975832594590764,4.887026784377945,0
smt_24451,26.12839737210287,327.6,7.975701273535675,4.88693430896189,0
smt_24450,26.127990973752464,327.6,7.975577220315159,4.886846980874763,0
smt_6394,26.127546352987554,327.6,7.97544149969095,4.886751472176645,0
smt_24668,26.120083967610615,327.6,7.973163604276744,4.885153565245569,0
smt_29393,26.1199097584255,327.6,7.97311042686981,4.885116376687206,0
smt_19218,26.11844549036873,327.6,7.972663458598514,4.88480400463594,0
smt_6502,26.117935904613034,327.6,7.972507907391035,4.8846953813223655,0
smt_24667,26.11766959184267,327.6,7.97242661533659,4.884638631859172,0
smt_6683,26.1169535221884,327.6,7.972208034856044,4.884486102714733,0
smt_19220,26.116372459020507,327.6,7.972030665146675,4.884362395935784,0
smt_22844,26.11596833244858,327.6,7.971907305387234,4.884276392722967,0
smt_6687,26.115524252148646,327.6,7.971771749740124,4.884181919259565,0
smt_24666,26.115191313081272,327.6,7.971670119988178,4.884111112161962,0
rbt_623433,7.160322872088985,90.3,7.929482693343283,3.7311783299006325,0
rbt_626698,7.112834204712317,90.3,7.8768928069903845,3.7022938728289065,0
rbt_1607252,5.992443076402219,76.65,7.817929649578889,3.676815658341232,0
rbt_637356,4.684030850574561,61.95,7.560986038054174,3.5543461518138866,0
rbt_631391,6.741422780649888,90.3,7.465584474695336,5.654114857359953,0
rbt_605855,5.558212347619361,76.65,7.251418587892186,3.4110925697522965,0
rbt_1607255,6.492776635728709,90.3,7.190228832479191,3.380110544409311,0
rbt_636933,5.405166216447497,76.65,7.051749793147419,3.318293025981138,0
rbt_605910,4.246706986295081,61.95,6.85505566795009,3.2201752492802362,0
rbt_627343,6.148309173194114,90.3,6.808758774301345,3.199478224396973,0
rbt_1607304,4.131419332996751,61.95,6.668957761092415,3.1319195502810007,0
rbt_1607305,5.835266694830496,90.3,6.462089363045955,3.038235704813484,0
rbt_1607285,3.9651754108994224,61.95,6.400605990152417,3.005161829506367,0
rbt_606103,4.8165214586233605,76.65,6.283785334146589,2.9539222150081557,0
rbt_3405846,4.800542503357155,76.65,6.2629386867020935,2.945248035451963,0
rbt_606109,3.824245917422809,61.95,6.1731168965662775,2.900106051743038,0
rbt_605825,5.571608013976736,90.3,6.170108542609896,2.9015043066761,0
sbt_4580,10.02082053991134,163.8,6.117717057332929,2.878822771770554,0
rbt_1631852,5.515842857533485,90.3,6.108353109117924,2.871259646199485,0
rbt_605993,5.483981320672079,90.3,6.07306901514073,2.854201882755348,0
rbt_621999,5.443882642982107,90.3,6.028662949038878,2.8338884453106226,0
rbt_630753,5.439846541562215,90.3,6.024193290766573,2.8331644545739363,0
sbt_28279,12.992224606871057,216.3,6.006576332349079,2.9804962278567118,0
sbt_20214,12.992217175334606,216.3,6.006572896594824,2.9804965167814195,0
sbt_6049,9.829181349886214,163.8,6.000721214826749,2.824024262791252,0
smt_6110,19.41388802551108,327.6,5.926095245882503,3.373670957606892,0
rbt_607384,3.6017607591786587,61.95,5.813980240804937,2.731704313670814,0
rbt_1607278,4.449618329483196,76.65,5.8051119758423955,2.727806303127759,0
rbt_1628760,5.225418143239706,90.3,5.786731055636441,2.7190395128105482,0
smt_24515,18.93366867979811,327.6,5.779508144016517,3.3469059879738907,0
smt_6552,18.93327341792676,327.6,5.779387490209633,3.346810687641737,0
smt_6549,18.93275114635146,327.6,5.779228066651849,3.346684818986462,0
smt_23959,18.932295076750925,327.6,5.779088851267071,3.3465749559887943,0
smt_22744,18.931747924990734,327.6,5.7789218330252545,3.3464432147851952,0
smt_19175,18.931292842588615,327.6,5.778782918983094,3.346333693731692,0
smt_19177,18.930774642619706,327.6,5.778624738284403,3.3462090402449953,0
smt_19176,18.93023000314214,327.6,5.778458486917624,3.3460780928356026,0
smt_19164,18.92999285473327,327.6,5.778386097293428,3.346021096531039,0
smt_32311,18.92958478039625,327.6,5.7782615324774875,3.34592304990505,0
smt_39119,18.929095291743728,327.6,5.778112115916889,3.3458054927990903,0
smt_32312,18.92907230943393,327.6,5.778105100559808,3.345799974730587,0
smt_32310,18.929053568777217,327.6,5.778099379968625,3.3457954746506395,0
smt_32309,18.928600606015905,327.6,5.777961112947468,3.345686742551902,0
smt_32314,18.92839351349248,327.6,5.777897897891477,3.345637045808451,0
smt_32313,18.928377784332266,327.6,5.77789309656052,3.3456332720248168,0
smt_6802,18.92819745405556,327.6,5.77783805068851,3.4055556260311923,0
smt_24514,18.927631776962983,327.6,5.777665377583328,3.405420588013349,0
smt_24513,18.927044278652406,327.6,5.77748604354469,3.4052804153805964,0
smt_19166,18.92658326179467,327.6,5.77734531800814,3.4051704734524186,0
smt_6414,18.926133226768048,327.6,5.77720794467889,3.405063195594257,0
smt_18852,18.925677738499445,327.6,5.777068906745862,3.4049546632350265,0
smt_6403,18.925172321391333,327.6,5.776914628019332,3.404834287449703,0
smt_1832,18.924732934175434,327.6,5.776780504937555,3.404729683891729,0
smt_1831,18.924304852964255,327.6,5.776649833017172,3.404627812800102,0
smt_1829,18.923464364671165,327.6,5.776393273709147,3.4044279182507218,0
smt_1828,18.922855917455653,327.6,5.776207545010883,3.4042833076189964,0
rbt_3433894,5.194728952371068,90.3,5.752745240721006,2.704761627474349,0
smt_6350,18.82804903564841,327.6,5.747267715399391,3.3297660941040976,0
smt_24517,18.825826701173458,327.6,5.746589347122545,3.3294523182724176,0
smt_24520,18.82514555496513,327.6,5.746381427034533,3.3292879797456663,0
smt_19116,18.824823910871714,327.6,5.746283245076835,3.329210414308412,0
rbt_1607357,4.382636249269166,76.65,5.71772504797021,2.687415036748291,0
rbt_605806,4.787476985701678,90.3,5.301746385051693,2.491613794130033,0
rbt_622714,4.714600215157938,90.3,5.221041212799489,2.4552751923634455,0
smt_6066,8.480328764904042,163.8,5.177245888219806,3.0045338208055625,0
smt_6062,8.479900082827088,163.8,5.176984177550114,3.0044213675500937,0
smt_6719,8.479426563240667,163.8,5.17669509355352,3.0042976253806573,0
smt_6176,8.478892535834207,163.8,5.176369069495853,3.004157409250664,0
smt_6144,8.478393581201273,163.8,5.1760644573878345,3.004027511235172,0
smt_6227,8.477864425253172,163.8,5.175741407358468,3.003889618440254,0
smt_19063,8.47735296929076,163.8,5.175429163181171,3.0037568977008466,0
smt_6092,8.476845854068053,163.8,5.175119569028115,3.003624932508733,0
smt_29474,8.476406370351816,163.8,5.174851263951047,3.0035122518673956,0
smt_29473,8.475914234665385,163.8,5.174550814814032,3.003385717686177,0
smt_19115,8.475421724503516,163.8,5.174250137059532,3.003258085258692,0
smt_24512,8.475033287719448,163.8,5.174012996165719,3.0031538203643806,0
rbt_1607258,3.941063489511188,76.65,5.141635341828033,2.418136806234857,0
smt_37840,8.371121782298225,163.8,5.110574958668025,2.975886020076187,0
smt_6474,8.370771772842192,163.8,5.110361277681435,2.9757944171968345,0
smt_19061,8.370338079232885,163.8,5.1100965074681834,2.975680170597821,0
smt_29476,8.36991425080086,163.8,5.109837759951685,2.975569782695968,0
smt_6594,8.36939656810064,163.8,5.109521714347156,2.9754343135905823,0
smt_29475,8.368874412592435,163.8,5.109202938090619,2.975297338354871,0
smt_19011,8.368424182095552,163.8,5.108928072097407,2.975180853781945,0
smt_19014,8.367907915999538,163.8,5.108612891330609,2.9750468672384422,0
rbt_627328,4.601425672940638,90.3,5.0957094938434535,2.398579724953272,0
sbt_5830,8.268487128790413,163.8,5.047916440042987,2.3753651112136356,0
rbt_621168,3.8295629812707674,76.65,4.9961682730212225,2.3484601307637365,0
rbt_605815,4.493796816443294,90.3,4.976519176570647,2.3404152865492622,0
rbt_1107330,4.492544539900031,90.3,4.975132380841673,2.3416557212089306,0
rbt_621171,3.0748071938613295,61.95,4.96336915877535,2.3318557753053235,0
rbt_3422597,4.47353951727058,90.3,4.954085844153466,2.3300999968477867,0
rbt_606127,3.052087387423417,61.95,4.926694733532553,2.314665030840897,0
rbt_635966,3.0351607682179385,61.95,4.899371700109667,2.3020702406904268,0
rbt_1124041,4.413799964112571,90.3,4.887929085395982,2.2990388518699905,0
rbt_605921,3.637370143360679,76.65,4.745427453829979,2.230767497073282,0
sbt_14007,7.730367874214517,163.8,4.719394306602269,2.2203145100249073,0
sbt_25907,10.17059838696685,216.3,4.702079698089158,1.8011297796953196,0
sbt_21361,10.170591687896332,216.3,4.7020766009691775,1.8011298794577772,0
sbt_20771,10.170586338491113,216.3,4.702074127827606,1.801132024909261,0
rbt_627336,4.222409714785206,90.3,4.675979750592698,2.1971558752659908,0
rbt_1627321,4.206512034969256,90.3,4.658374346588323,2.189868180057638,0
rbt_1607355,4.188704254958124,90.3,4.638653659975775,2.1803998455800464,0
rbt_605902,2.8732126081268907,61.95,4.6379541696963535,2.179511158667626,0
sbt_35173,5.835266300089521,128.1,4.555243013340766,2.141706816862819,0
rbt_1607358,3.4877109159342843,76.65,4.550177320201284,2.139054829185613,0
sbt_21952,9.829180524780961,216.3,4.5442351016093205,2.138581002477458,0
sbt_20840,7.400526310233839,163.8,4.518025830423589,2.1263518056061637,0
sbt_6273,7.393959602115748,163.8,4.514016851108515,2.1234105748536938,0
smt_6536,12.8557030140129,286.65,4.484808307696808,2.635391335279517,0
smt_6703,12.855104932215822,286.65,4.48459966238124,2.6352460748595727,0
smt_6514,12.854518347072695,286.65,4.484395027759531,2.635103758133186,0
smt_6984,12.854428800590188,286.65,4.484363788798252,2.635082045502501,0
smt_5854,12.853517588319198,286.65,4.484045905570975,2.6348613014664295,0
smt_5855,12.852834737748989,286.65,4.483807688033836,2.6346961166215856,0
smt_5657,12.852274963296056,286.65,4.483612406522259,2.634560856690882,0
smt_21743,12.851684723890724,286.65,4.483406497083804,2.634418384089851,0
smt_22741,12.851079840210657,286.65,4.483195478880397,2.6342725351695067,0
smt_6098,12.850599205380117,286.65,4.483027805818985,2.634156759517471,0
smt_19120,12.850041755675342,286.65,4.482833335313219,2.6340226078174904,0
smt_22740,12.849489929492677,286.65,4.482640826615272,2.6338899440653987,0
smt_22738,12.833460402110267,286.65,4.4770488058992735,2.628057807468696,0
smt_6754,12.832958247440267,286.65,4.476873625480645,2.6279359529772752,0
smt_6567,12.83244771022971,286.65,4.476695520749942,2.62781217718454,0
smt_6746,12.831940124322298,286.65,4.476518445603453,2.627689229782383,0
smt_6812,12.831441226819171,286.65,4.47634440147189,2.627568496668562,0
rbt_3405838,4.017110108514208,90.3,4.448626919727805,2.093589107643091,0
rbt_622273,2.5570870147525224,57.75,4.4278563026017705,2.084417657420969,0
rbt_1107341,2.7390545296429587,61.95,4.4213955280758,2.08015989968009,0
rbt_638617,2.7283200292717162,61.95,4.4040678438607195,2.0718783505092566,0
rbt_605828,3.9686717917735175,90.3,4.394985372949632,2.0684996205390362,0
rbt_1607292,3.8932560482889405,90.3,4.311468492014331,2.027310463100554,0
rbt_1626490,3.851470312592459,90.3,4.265194144620663,3.2305691090401694,0
rbt_1635060,2.6420966678073774,61.95,4.264885662320221,2.005672247230707,0
sbt_37156,6.961821970156216,163.8,4.250196562976933,1.9970011193347876,0
rbt_605867,3.829321779208101,90.3,4.240666422157365,1.994202137085705,0
sbt_4615,6.866317818997556,163.8,4.191891220389228,1.9736418589142328,0
sbt_3373,6.866316638348479,163.8,4.191890499602246,1.9736410703670133,0
sbt_20793,6.866315552606845,163.8,4.191889836756315,1.9736403520289343,0
sbt_4010,6.8663138658289995,163.8,4.191888806977411,1.9736392482873593,0
sbt_28804,6.866312330439062,163.8,4.191887869620917,1.9736382558137262,0
rbt_605812,3.739112621171047,90.3,4.140767022337815,1.9489961344309643,0
rbt_632613,3.7360301325182705,90.3,4.137353413641496,1.9462290411576608,0
rbt_622713,3.7175991710349865,90.3,4.116942603582488,1.9346413857517522,0
rbt_606120,2.5385839389934284,61.95,4.097794897487375,1.924796544614629,0
sbt_26269,8.789999357134576,216.3,4.063799980182421,1.911087838080532,0
smt_7052,6.581212437507026,163.8,4.01783421093225,2.155133513278871,0
rbt_1132019,3.6194350888263482,90.3,4.008233763927296,1.8847610469855607,0
rbt_605863,3.601861040149631,90.3,3.9887719160018063,1.8761297891689015,0
rbt_634166,3.0271948081533817,76.65,3.9493735266188925,1.8559363384465826,0
rbt_1138614,2.430167733090458,61.95,3.922788915400255,1.8445836516006373,0
sbt_4118,11.164686510533508,286.65,3.894884531844936,1.439915291992958,0
rbt_605803,3.498256206683575,90.3,3.874037881155676,1.8212447577399402,0
smt_37837,8.371710246079518,216.3,3.870416202533295,2.2537016056515644,0
smt_37841,8.371344266769912,216.3,3.8702470026675506,2.253627282981054,0
rbt_605834,3.472584752113281,90.3,3.845608806327,1.8106128127549603,0
rbt_605904,2.376654125727462,61.95,3.8364069826109155,1.8012899655999588,0
smt_29484,6.28164793674561,163.8,3.8349499003330947,1.8996686227471578,0
smt_22951,6.281634523671646,163.8,3.834941711643251,1.8996603577980136,0
smt_19381,6.280305519432643,163.8,3.834130353743982,1.8988425076967135,0
smt_18804,6.2796135622078975,163.8,3.8337079134358345,1.898417528233607,0
smt_19380,6.278820540008159,163.8,3.8332237728987537,1.897931189382474,0
smt_5349,6.278185123906245,163.8,3.8328358509806133,1.897542056522945,0
smt_18803,6.277539698062866,163.8,3.8324418181091975,1.8971472967585787,0
smt_13454,6.276880618122887,163.8,3.8320394494034717,1.896744710782609,0
smt_19377,6.276097109846714,163.8,3.831561117122536,1.8962668127482356,0
smt_29411,6.275112003779064,163.8,3.8309597092668275,1.8956670228502945,0
smt_8954,6.274506703512815,163.8,3.830590173084746,1.8952990754835808,0
smt_5584,6.273801059974874,163.8,3.8301593772740374,1.8948707054953189,0
rbt_605810,2.9310286142495405,76.65,3.8239120864312333,1.797330929587103,0
rbt_605864,3.4437685398095383,90.3,3.813697164794616,1.7938094048092867,0
rbt_609682,2.9029931533474382,76.65,3.7873361426581056,1.7818872708891271,0
rbt_622703,2.3295387908411413,61.95,3.760353173270607,2.84865034801827,0
rbt_605835,3.393733914199748,90.3,3.7582878341082484,1.7694826738535678,0
sbt_14006,6.1448881074366035,163.8,3.7514579410479874,1.7642852922400938,0
smt_25186,6.062836607422808,163.8,3.7013654501970743,2.000734513523201,0
sbt_27416,8.000815991702193,216.3,3.69894405534082,1.7396694827407606,0
sbt_15213,8.000815936374586,216.3,3.698944029761713,1.739669470784958,0
rbt_606128,2.8202031210697904,76.65,3.6793256634961384,1.7291749697945713,0
rbt_1607257,3.29241720231686,90.3,3.646087710206933,1.713980867495204,0
rbt_607385,3.2856600062192016,90.3,3.638604658050057,1.711503828648753,0
rbt_3405845,3.2751001722434765,90.3,3.626910489749143,1.7073876825233194,0
rbt_633056,3.2709324368478914,90.3,3.622295057417377,1.7031852456313858,0
rbt_606141,3.267035522045855,90.3,3.6179795371493415,1.703338992230467,0
rbt_623015,3.2586495240306292,90.3,3.6086927176418935,2.733432524140028,0
sbt_34389,4.601424430790465,128.1,3.5920565423813158,2.764390991979731,0
smt_37855,7.732265262963543,216.3,3.574787453982221,1.9500544329971046,0
smt_37854,7.7318818428214735,216.3,3.5746101908559744,1.9500083185396244,0
smt_37853,7.731528973664039,216.3,3.574447052086934,1.9499678224595096,0
smt_37852,7.731166741103285,216.3,3.574279584421306,1.9499250317005348,0
smt_37851,7.7308255274327315,216.3,3.5741218342268755,1.9498864983472386,0
smt_37850,7.7304705822532505,216.3,3.5739577356695564,1.9498458797249725,0
smt_37849,7.730117051539254,216.3,3.5737942910491234,1.9498063079769603,0
smt_37848,7.729750856668462,216.3,3.573624991524947,1.949764846442414,0
smt_37847,7.729386002424712,216.3,3.573456311800606,1.9497185282470848,0
smt_37846,7.729129543196824,216.3,3.573337745352207,1.9496943955283343,0
smt_37845,7.728779458736399,216.3,3.5731758940066567,1.9496565325645105,0
smt_38000,7.728406265122337,216.3,3.573003358817539,1.9496123352253534,0
smt_38002,7.728090181204688,216.3,3.5728572266318483,1.9495620022637505,0
smt_38001,7.728081985887951,216.3,3.572853437766043,1.949561379281871,0
smt_37843,7.728069540963137,216.3,3.572847684217816,1.9495766256123652,0
smt_37842,7.727725271331349,216.3,3.5726885211887884,1.9495304711471693,0
smt_37838,7.727547336889303,216.3,3.5726062583861773,1.9495164781608165,0
rbt_605982,3.192055995824519,90.3,3.534945731810099,1.663311848742851,0
rbt_1606000,3.190994026359539,90.3,3.5337696858909626,1.6614893750038509,0
rbt_1629639,3.1775960202899274,90.3,3.5189324698670297,1.6533482922248586,0
sbt_3952,5.743422433357674,163.8,3.506362901927761,1.6502751738647492,0
sbt_4120,5.743421034018076,163.8,3.5063620476300827,1.6502742620802051,0
sbt_20855,5.743419667747046,163.8,3.506361213520785,1.6502733795337798,0
sbt_20854,5.743418368265512,163.8,3.5063604201865153,1.6502725468699422,0
rbt_635963,2.171579231943546,61.95,3.505374062862867,1.6464963638128125,0
rbt_626481,3.122927311772896,90.3,3.4583912644218118,1.6256817941873904,0
rbt_1607306,2.6333337345463304,76.65,3.4355299863618134,1.6154772881204729,0
rbt_605901,3.0927230752893617,90.3,3.424942497551896,1.6093648739691562,0
rbt_605820,2.620449120110574,76.65,3.418720313255804,1.60808469619385,0
rbt_3405847,3.0854381192168288,90.3,3.4168749935956018,1.6084212108638425,0
sbt_34000,7.347057601623251,216.3,3.396697920306635,1.596685871469344,0
rbt_1607289,2.603360767580517,76.65,3.3964263112596433,1.5961218077046093,0
smt_6512,9.665486714442405,286.65,3.3718774514015024,1.9936787265517912,0
smt_6425,9.66508535966928,286.65,3.371737435782062,1.993591292223879,0
smt_6930,9.664470480609392,286.65,3.3715229306155217,1.9934575455424117,0
sbt_20828,5.51219936149001,163.8,3.3652010753907264,1.5817876256612446,0
smt_15243,5.478446240655766,163.8,3.3445947745151194,1.9880376057231788,0
smt_26472,5.477982764331838,163.8,3.3443118219364085,1.987928146612641,0
smt_14780,5.477457449084025,163.8,3.3439911166569134,1.9878033303170632,0
smt_14754,5.476933252578043,163.8,3.343671094369989,1.9876794199982777,0
smt_14729,5.476411664287342,163.8,3.3433526644000864,1.9920776623664784,0
smt_21229,5.475882166830724,163.8,3.343029405879563,1.9919545632192897,0
smt_26474,5.475383197666567,163.8,3.3427247849002235,1.9918384981841204,0
smt_22453,5.474943099555079,163.8,3.3424561047344805,1.9917397403056316,0
smt_14544,5.474414453995988,163.8,3.342133366297917,1.9916193988692523,0
smt_14113,5.473886463962829,163.8,3.3418110280603353,1.9915011497092643,0
smt_22508,5.473307194401795,163.8,3.3414573836396797,1.9913692100606364,0
smt_14452,5.472796493810884,163.8,3.341145600617145,1.9912529581929361,0
smt_30311,5.472367928796686,163.8,3.3408839614143377,1.9911602035439573,0
smt_26478,5.471839407388265,163.8,3.340561298771834,1.9910408520721854,0
sbt_37537,7.222644851984558,216.3,3.339179312059435,1.3285012865456627,0
sbt_37545,7.222636225760699,216.3,3.3391753239762823,1.328501868606965,0
sbt_37546,7.222619543119307,216.3,3.3391676112433224,1.328500778566799,0
sbt_37539,7.214108066553366,216.3,3.3352325781568957,1.904047980881608,0
sbt_37538,7.214102548345807,216.3,3.3352300269744832,1.9040485022756748,0
rbt_1609690,2.9937681609860785,90.3,3.315357874846156,1.5578378524140284,0
smt_22686,9.463277405907505,286.65,3.301335219224666,2.0467491122220807,0
smt_6239,9.462803256429998,286.65,3.3011698086272454,2.0466430000650706,0
smt_23961,9.462340402833133,286.65,3.301008338682412,2.0465395514797238,0
smt_37856,7.139783840659216,216.3,3.3008709388160957,1.833628019852527,0
smt_29407,9.461869532019026,286.65,3.300844071871281,2.046434448760699,0
smt_6278,9.461447768122467,286.65,3.3006969363762315,2.046340425215805,0
smt_6630,9.460955980219515,286.65,3.3005253724819523,2.046230932440024,0
smt_19070,9.460461809181698,286.65,3.3003529772132216,2.0461210623510193,0
smt_6639,9.459967889457818,286.65,3.30018066961724,2.046011401984576,0
smt_19117,9.45950680534787,286.65,3.300019816971174,2.0459091708232067,0
smt_21514,9.454210608054499,286.65,3.2981721988677832,2.040113239163244,0
smt_5615,9.453734065820528,286.65,3.298005953539344,2.040004985404129,0
smt_18742,9.4533629162278,286.65,3.2978764752233736,2.039920770138728,0
smt_6270,9.452779961825636,286.65,3.2976731072128507,2.039788667206245,0
smt_5967,9.45232651116892,286.65,3.2975149175541327,2.0396860563270365,0
smt_5772,9.451791554276477,286.65,3.2973282938344597,2.03956516523207,0
smt_6158,9.451262423206973,286.65,3.297143702496764,2.0394457652673257,0
smt_6263,9.450804135600157,286.65,3.296983825431766,2.039342491993039,0
smt_6384,9.450235735329173,286.65,3.2967855347389405,2.039214586881481,0
smt_22684,9.449679520604239,286.65,3.296591495065145,2.0390896188886036,0
smt_22685,9.449225653103149,286.65,3.2964331599871444,2.038987789038156,0
smt_29447,9.448749766629819,286.65,3.296267143425718,2.038881157446299,0
smt_19065,9.448239912314273,286.65,3.2960892769280563,2.03876707220427,0
smt_24385,9.447663756247913,286.65,3.2958882805679095,2.0386383476771246,0
smt_29448,9.445505862745478,286.65,3.295135483253263,2.0253772823958562,0
smt_6824,9.445041929030653,286.65,3.2949736365011875,2.0252695757878354,0
smt_6855,9.444544426322691,286.65,3.2948000789543666,2.0251542220685583,0
smt_19062,9.443963379843895,286.65,3.294597376537204,2.025019689367556,0
smt_7054,9.44350149202027,286.65,3.2944362435096006,2.024912893923831,0
smt_6446,9.443029526083407,286.65,3.294271594656692,2.0248039036800036,0
smt_39006,9.442545924909004,286.65,3.294102886763999,2.024692368851882,0
smt_39008,9.442108898297802,286.65,3.2939504267566027,2.0245916993093176,0
smt_39007,9.442090477796686,286.65,3.2939440006267877,2.0245874587706862,0
smt_6122,9.441671035073618,286.65,3.2937976748905,2.024490955773505,0
smt_18741,9.44114167735878,286.65,3.293613004485882,2.024369319494055,0
smt_5938,9.440651194022877,286.65,3.2934418956995914,2.0242567707392936,0
smt_5946,9.440084755406627,286.65,3.293244289344716,2.0241269786517213,0
sbt_34382,4.214413010445559,128.1,3.289939898864605,1.546105286922125,0
rbt_1625170,2.9691926746788426,90.3,3.288142496875795,1.545153294138328,0
rbt_605821,4.198412151637228,128.1,3.2774489864459238,1.5398976711086183,0
sbt_35105,4.188703894602169,128.1,3.26987033146149,1.53700287860676,0
smt_856,5.34131838894189,163.8,3.2608781373271603,1.9475991244018889,0
smt_15622,5.34073746555793,163.8,3.260523483246599,1.9474579969620658,0
smt_23196,5.340414575532546,163.8,3.260326358688978,1.9473838160663206,0
smt_15581,5.340068394753175,163.8,3.260115015111828,1.947304702834024,0
smt_15568,5.339693637063943,163.8,3.259886225313763,1.9472183731257935,0
rbt_605988,2.9300663592830225,90.3,3.2448132439457615,1.5272686051155357,0
rbt_605804,1.986929301681498,61.95,3.2073112214390602,1.5073575802609929,0
smt_23147,5.238349208655971,163.8,3.1980153898998602,1.9165413627203598,0
smt_16038,5.238032642560578,163.8,3.197822126105358,1.9164823682860204,0
smt_13546,5.195447742807477,163.8,3.171824018807983,1.8980421186558118,0
smt_21225,5.195136097746353,163.8,3.1716337593079076,1.897967835616498,0
smt_13930,5.19457539066121,163.8,3.1712914472901157,1.8978266152516123,0
smt_21226,5.1940186971503115,163.8,3.1709515855618506,1.8976847742479335,0
smt_13280,5.193592760789446,163.8,3.170691551153508,1.897578363342469,0
smt_14437,5.1931872535982375,163.8,3.170443988765712,1.897477997980715,0
sbt_6048,5.192992241429464,163.8,3.1703249337176214,1.49208062437089,0
smt_13955,5.192778374727663,163.8,3.1701943679656055,1.8973773209964824,0
smt_26469,5.192364121033325,163.8,3.1699414658323106,1.8972745339183588,0
smt_20808,5.192002065528713,163.8,3.1697204307257096,1.8971864802901512,0
smt_23095,5.191622925153507,163.8,3.1694889652951814,1.897089939382399,0
smt_20807,5.191431721866772,163.8,3.1693722355719,1.897048532175207,0
smt_13717,5.191028592723508,163.8,3.169126124983826,1.8969492366625935,0
rbt_605829,2.8563972357390113,90.3,3.163230604362139,1.4871638813661354,0
smt_37925,6.828616407164803,216.3,3.1570117462620444,1.7629101335983373,0
smt_37924,6.8284439745468255,216.3,3.1569320270674184,1.7629054534166402,0
smt_37923,6.82807497343863,216.3,3.1567614301611786,1.7628711441838012,0
smt_37864,6.827711238854946,216.3,3.156593268079032,1.762826659474812,0
smt_37863,6.827538921304802,216.3,3.156513602082664,1.762810928000637,0
smt_37862,6.827366789819946,216.3,3.156434022108158,1.7628018885654866,0
smt_37861,6.827082479759282,216.3,3.1563025796390574,1.7627797524915623,0
smt_37860,6.826738303375636,216.3,3.15614345972059,1.7627499971732867,0
smt_37859,6.826375386075439,216.3,3.1559756754856396,1.7627121089142965,0
smt_37858,6.826104989815718,216.3,3.155850665656827,1.7626944283275368,0
smt_37831,6.82573112144134,216.3,3.155677818511946,1.762649631600171,0
sbt_15045,6.825076054350373,216.3,3.1553749673372042,1.4843449451566304,0
smt_37898,6.807778961406388,216.3,3.1473781606132163,1.755672192126841,0
smt_37897,6.807368472333045,216.3,3.147188382955638,1.7556201479558988,0
smt_37896,6.807011813215386,216.3,3.1470234920089624,1.7555779709090629,0
smt_14797,5.154547220875433,163.8,3.146854225198677,1.8792120978576101,0
smt_37895,6.806629254102604,216.3,3.1468466269545097,1.7555316537600942,0
smt_37894,6.806252816921946,216.3,3.1466725921969236,1.755485743943283,0
smt_23041,5.154137335926893,163.8,3.1466039901873586,1.8791080493037498,0
smt_37893,6.805896778414711,216.3,3.1465079881713875,1.7554439388785463,0
smt_14823,5.153721938271632,163.8,3.146350389665221,1.8790030870605043,0
smt_37892,6.805525135559387,216.3,3.1463361699303687,1.7553993467301343,0
smt_37891,6.805166680392488,216.3,3.1461704486326805,1.7553580097932056,0
smt_13752,5.153300504362987,163.8,3.1460931040067073,1.8788889093191374,0
smt_37890,6.804785515535732,216.3,3.145994228171859,1.7553188842664775,0
smt_37889,6.804270489999941,216.3,3.1457561211280356,1.7552481819830075,0
smt_37888,6.804011674952684,216.3,3.145636465535221,1.755217713836022,0
smt_37887,6.803763899013925,216.3,3.145521913552438,1.7551948813064142,0
smt_37886,6.803380472048967,216.3,3.145344647271829,1.7551502669828813,0
smt_37885,6.8030110395740495,216.3,3.1451738509357603,1.755108263999694,0
smt_37884,6.802637839957048,216.3,3.145001312971358,1.7550659660421724,0
smt_37883,6.802263394235755,216.3,3.1448281989069597,1.7550242179352102,0
smt_37882,6.80187770541555,216.3,3.144649886923509,1.7549803904416372,0
smt_37881,6.801504789992864,216.3,3.1444774803480646,1.7549390647105894,0
smt_37880,6.801126320948338,216.3,3.144302506217447,1.7548960827140556,0
smt_37879,6.8007705349604555,216.3,3.144138018936873,1.7548585618040826,0
smt_37878,6.8003782515759905,216.3,3.143956658148863,1.7548145215462734,0
smt_37877,6.8000092549483515,216.3,3.143786063314078,1.7547749952234148,0
smt_37876,6.7996267322495125,216.3,3.1436092150945507,1.7547337043970186,0
smt_37875,6.799242461977927,216.3,3.143431558935703,1.7546924782324658,0
smt_37874,6.798856667392832,216.3,3.1432531980549383,1.7546507433937188,0
smt_37873,6.798481960907688,216.3,3.143079963433975,1.7546096663129263,0
smt_37945,6.798134114082469,216.3,3.1429191465938366,1.7545680463729694,0
smt_37944,6.797886145168491,216.3,3.1428045053945866,1.754544087796449,0
smt_37943,6.797595804830112,216.3,3.1426702750023634,1.7545162866274673,0
smt_37942,6.797254338385711,216.3,3.142512407945312,1.7544806570957985,0
smt_37941,6.796915751272853,216.3,3.14235587206327,1.7544455194063246,0
smt_37940,6.7965803003189125,216.3,3.142200786092886,1.75441143053372,0
smt_37939,6.796237778428298,216.3,3.142042431081044,1.7543768403011981,0
smt_37938,6.795888025294935,216.3,3.1418807329149026,1.7543415741951989,0
smt_37937,6.795534190268093,216.3,3.141717147604296,1.7543055916114445,0
smt_37936,6.795186420242766,216.3,3.1415563662703496,1.7542707674469737,0
smt_37935,6.794838485650287,216.3,3.1413955088535768,1.7542343687289597,0
smt_37934,6.7945237616963405,216.3,3.1412500054074624,1.7542047931192064,0
smt_37933,6.794179821597227,216.3,3.14109099472826,1.754171083008566,0
smt_37932,6.793833934250813,216.3,3.1409310837960303,1.7541373027621907,0
smt_23225,5.1406541117531726,163.8,3.138372473597785,1.872212257964902,0
smt_21220,5.1401895348575355,163.8,3.138088849119374,1.8720905718274754,0
smt_14845,5.139704160567173,163.8,3.137792527818787,1.87196404208337,0
smt_26425,5.139201631250003,163.8,3.13748573336386,1.8718334220858537,0
smt_20810,5.138702247786081,163.8,3.137180859454262,1.8717030455575883,0
smt_26429,5.138281685380708,163.8,3.1369241058490274,1.8715948308570212,0
smt_26430,5.137864547272799,163.8,3.1366694427794863,1.8714880059119674,0
smt_21222,5.124802318214,163.8,3.1286949439645904,1.8657836983671041,0
smt_14301,5.1244621680976605,163.8,3.1284872821109033,1.8656924189332587,0
smt_23277,5.124032403010499,163.8,3.1282249102628197,1.8655759588779877,0
rbt_1607316,2.824575817451477,90.3,3.1279909384844706,2.370384941647028,0
smt_26427,5.123628147569665,163.8,3.1279781120693926,1.8654674350735414,0
smt_20812,5.12320208084198,163.8,3.1277179980720273,1.8653532804992368,0
rbt_1107342,1.9375672934719803,61.95,3.127630820778015,1.4706681260515477,0
smt_15154,5.122775059602884,163.8,3.1274573013448617,1.8652390365069438,0
smt_14674,5.122372335547047,163.8,3.1272114380629104,1.8651331822376551,0
smt_37986,6.717891247266876,216.3,3.105821196147423,1.7763194089544072,0
smt_37987,6.717626810808875,216.3,3.105698941659212,1.7762808277336217,0
smt_37993,6.717288959701955,216.3,3.1055427460480605,1.776226112985613,0
smt_37920,6.717120042157865,216.3,3.1054646519453835,1.7762058221796455,0
smt_37919,6.71671001799992,216.3,3.105275089227887,1.776144035707931,0
smt_37918,6.71630751101619,216.3,3.105089001856768,1.776083410614789,0
smt_37917,6.71592245375513,216.3,3.1049109818562783,1.7760262898758539,0
smt_37916,6.7155257038590435,216.3,3.104727556106816,1.77596728735539,0
smt_37915,6.71513433533265,216.3,3.104546618276768,1.7759070936091605,0
smt_37914,6.714843593360594,216.3,3.1044122022009213,1.775866392552589,0
smt_37913,6.714462935870499,216.3,3.1042362163062864,1.7758110303225199,0
smt_37912,6.714062349847806,216.3,3.1040510170355087,1.775752214836843,0
smt_40685,6.713674369279576,216.3,3.103871645529161,1.7756952476437136,0
smt_37911,6.713306851417118,216.3,3.1037017343583533,1.7756334127717122,0
smt_37910,6.713285308784418,216.3,3.103691774750078,1.775639617089948,0
smt_37909,6.7128908715919495,216.3,3.1035094182117193,1.7755825558828793,0
smt_37908,6.712504196595505,216.3,3.1033306502984304,1.77552751157892,0
smt_40683,6.712099855525303,216.3,3.103143714990894,1.775468992404959,0
smt_37906,6.711724005971824,216.3,3.1029699519056053,1.7754158833276044,0
smt_37905,6.711334545598349,216.3,3.1027898962544374,1.7753599994887617,0
smt_37904,6.710971963617079,216.3,3.1026222670444192,1.775308890780645,0
smt_37903,6.710608288537329,216.3,3.1024541324721815,1.7752553813974943,0
smt_37963,6.661328630286847,216.3,3.0796711189490735,1.7530214330961822,0
smt_37983,6.660826584179333,216.3,3.079439012565572,1.752938714722417,0
smt_37984,6.660316306230129,216.3,3.0792031004300178,1.7528547437048427,0
smt_37985,6.659814301126062,216.3,3.0789710130032644,1.752772515744999,0
smt_37947,6.659320457471185,216.3,3.0787426987846436,1.7526913686618644,0
smt_37948,6.65886871693674,216.3,3.078533849716477,1.7526183962246247,0
sbt_22669,6.657591579048832,216.3,3.077943402241716,1.4471457044453429,0
rbt_3405987,1.9060170276693986,61.95,3.076702223840837,1.4485302474450437,0
rbt_1132012,2.767513401526332,90.3,3.0647988942705777,1.4404789106344014,0
rbt_1607268,2.346711763930724,76.65,3.061593951638257,1.4388243367675673,0
sbt_35588,6.604932062610433,216.3,3.0535978098060252,1.4350980243396476,0
rbt_605823,2.7546234829000924,90.3,3.050524344296891,1.434637454600816,0
smt_29426,6.581934133673994,216.3,3.042965387736474,1.632369731357805,0
sbt_21281,4.945632901354177,163.8,3.0193119055886304,1.4186324976734992,0
rbt_605989,2.6918490341834063,90.3,2.9810066823736507,1.4011008361801265,0
rbt_1121173,2.686633067682387,90.3,2.97523041825292,1.399554332256244,0
rbt_605807,2.6796021674425368,90.3,2.9674442607337066,1.3962483785155566,0
rbt_606130,2.2576317241141517,76.65,2.9453773308729962,1.3840176824522965,0
sbt_3491,4.816518232326918,163.8,2.940487321322905,1.3822820965445564,0
rbt_637399,1.8108957628544058,61.95,2.9231570021862883,1.3736726753369874,0
sbt_21191,4.778053759106702,163.8,2.917004736939378,1.3715852888616678,0
sbt_26310,4.714599809666988,163.8,2.8782660620677585,1.3535488904784163,0
rbt_637705,2.5840463854524898,90.3,2.8616239041555813,2.167789146532639,0
smt_37960,6.172707478861488,216.3,2.8537713725665688,1.6664401481472109,0
smt_37962,6.172273359460407,216.3,2.853570670115768,1.6663714288449663,0
rbt_1105833,2.576088834935246,90.3,2.852811555852986,1.3410709488070587,0
smt_37981,6.152097146655397,216.3,2.84424278624845,1.641308240160127,0
smt_37951,6.15169151614873,216.3,2.8440552548075497,1.6412406301310263,0
smt_37952,6.1512851737909084,216.3,2.843867394263018,1.6411748336525012,0
smt_37953,6.15078495036649,216.3,2.8436361305439157,1.641091868175338,0
smt_37954,6.150303042328481,216.3,2.8434133344098385,1.6429696459511842,0
smt_37955,6.149780064188482,216.3,2.843171550711272,1.642882128452963,0
smt_37956,6.1493595469147255,216.3,2.8429771368075474,1.6428150762716538,0
smt_37957,6.148862147732188,216.3,2.842747178794354,1.642734391538811,0
smt_37958,6.148367556757672,216.3,2.842518519074282,1.6426548225203488,0
smt_37959,6.147863508831456,216.3,2.8422854872082555,1.6425738081914627,0
rbt_1607276,2.5661897270837892,90.3,2.841849088686367,1.3353926132299574,0
smt_25183,6.062206636984885,216.3,2.802684529350386,1.5148277850448075,0
smt_25117,6.061563339859654,216.3,2.802387119676215,1.514530333123535,0
smt_25116,6.060902033834331,216.3,2.8020813841120344,1.5142248404357963,0
smt_25115,6.060384607878118,216.3,2.801842167303799,1.5139860165603143,0
smt_25114,6.059930476092196,216.3,2.8016322127102153,1.5137765540733186,0
smt_25113,6.05940048924413,216.3,2.801387188739773,1.513532278801384,0
smt_25112,6.058840635039555,216.3,2.801128356467663,1.5132744419417847,0
smt_25111,6.058473836075552,216.3,2.8009587776586,1.5131056295375356,0
smt_25110,6.058208896441168,216.3,2.800836290541455,1.5129837523019931,0
smt_25109,6.057510086937639,216.3,2.800513216337327,1.5126625139679062,0
smt_25108,6.056978025817484,216.3,2.8002672333876486,1.5124181501369962,0
smt_25107,6.056261234851433,216.3,2.799935845978471,1.512089247646238,0
smt_25106,6.055635373303725,216.3,2.799646497135333,1.5118023543387047,0
smt_25105,6.054995111933511,216.3,2.799350490954004,1.511509136794125,0
smt_37979,6.054481909278892,216.3,2.799113226666154,1.6309682557806804,0
smt_29427,6.0543545127052525,216.3,2.799054328573857,1.5112160452784658,0
smt_37980,6.05405085340857,216.3,2.7989139405495007,1.6308794328936287,0
smt_6407,6.053086454078645,216.3,2.798468078630904,1.510636705689354,0
smt_22794,6.052455270216696,216.3,2.7981762691709178,1.5103487494301,0
smt_6477,6.051758645808156,216.3,2.797854205181764,1.5100312585270628,0
smt_6641,6.0508535803596235,216.3,2.797435774553686,1.509619273191449,0
smt_6157,6.05021804888056,216.3,2.797141955099658,1.5093303210989397,0
smt_6694,6.049500243022428,216.3,2.79681009848471,1.5090043020525092,0
rbt_1607319,2.525331433352063,90.3,2.7966018088062716,1.9866111269170572,0
rbt_622709,2.52240998061076,90.3,2.793366534452669,1.3133552246049234,0
rbt_1607328,2.5197770824887855,90.3,2.79045081117252,1.3122050430288836,0
rbt_607366,2.5187587802563507,90.3,2.7893231232074758,1.3108462942324477,0
smt_6074,7.935186463915969,286.65,2.7682492460896455,1.6279588292727905,0
smt_6082,7.934699183417034,286.65,2.768079254637026,1.6278641508098837,0
smt_6649,7.934218903187393,286.65,2.767911705280793,1.6277710119308768,0
smt_29408,7.9337492676137265,286.65,2.767747869392544,1.627680212120201,0
smt_6422,7.93327858260192,286.65,2.7675836673999377,1.6275894184233464,0
smt_22683,7.932805427564804,286.65,2.7674186037204973,1.6274983204731661,0
smt_22793,7.912307951507146,286.65,2.7602679056365416,1.6132432316130327,0
smt_22790,7.911816529226171,286.65,2.760096469292228,1.6131443256156812,0
smt_6370,7.911342085918273,286.65,2.7599309561898737,1.6130490959064196,0
smt_29449,7.9112579626461015,286.65,2.7599016091561497,1.6137141268276116,0
smt_29409,7.910865123973956,286.65,2.759764564442336,1.6129536323617915,0
smt_6401,7.910783844842547,286.65,2.759736209608424,1.613620737609561,0
smt_5650,7.91036537345713,286.65,2.759590222730553,1.6128537161632124,0
smt_21348,7.910306988149631,286.65,2.759569854578626,1.6135294912528118,0
smt_6094,7.9098719467704415,286.65,2.75941808713429,1.6127548544148922,0
smt_29477,7.909493017724642,286.65,2.7592858948978347,1.6126797464120797,0
smt_29450,7.909029882673578,286.65,2.759124326765595,1.6125879124443994,0
smt_6231,7.908520644551574,286.65,2.7589466752316674,1.6124868091111078,0
smt_6340,7.908043372414266,286.65,2.7587801752709806,1.6123924530774947,0
sbt_21953,4.4925448773099435,163.8,2.7427013902991106,1.290912811514493,0
sbt_21849,4.49254480500686,163.8,2.742701346158034,1.2909127905177082,0
sbt_21968,4.492544717391423,163.8,2.7427012926687566,1.290912765122264,0
smt_6581,7.838227056514289,286.65,2.734424230425358,1.5843213568289602,0
smt_6701,7.837747126475257,286.65,2.734256803235743,1.584228815431435,0
smt_21959,7.837220025688402,286.65,2.73407292017736,1.584126620367561,0
smt_19219,7.82649826374939,286.65,2.730332553200555,1.5728787587580453,0
smt_5952,7.825992741164556,286.65,2.7301561978596047,1.572773883507546,0
smt_29478,7.825465504968487,286.65,2.7299722675627027,1.5726646620206977,0
smt_22841,7.825000903003517,286.65,2.7298101876865575,1.572568704419462,0
smt_6660,7.824498985829301,286.65,2.7296350901201123,1.5724651900984459,0
smt_22845,7.781298200760866,286.65,2.714564172601035,1.5474714982547926,0
smt_18913,7.780712968142705,286.65,2.714360009817794,1.5473495441660197,0
smt_5786,7.7801456919627965,286.65,2.7141621112725614,1.5472316165312305,0
smt_29479,7.779657276572935,286.65,2.7139917239047393,1.5471303468332478,0
smt_19224,7.779155280384199,286.65,2.7138165987734864,1.5470264913804057,0
rbt_1633892,2.4348406024217875,90.3,2.6963904788724116,1.2674058130648598,0
sbt_21137,4.413797410389626,163.8,2.69462601366888,1.2674172505394046,0
rbt_1134165,2.427913321898976,90.3,2.6887190718704055,1.2653279426005384,0
rbt_1131858,2.4266190461099995,90.3,2.687285765348837,1.2642733011896958,0
rbt_1607353,2.4061130489353886,90.3,2.664577019862003,1.2523769516140852,0
sbt_34390,4.348288767590202,163.8,2.654632947246766,2.0110168373507085,0
smt_37973,5.637915007748066,216.3,2.6065256623893043,1.5461419901117657,0
smt_37991,5.637727099385207,216.3,2.606438788435139,1.5461123474531975,0
smt_37974,5.637462220853756,216.3,2.6063163295671545,1.5460723173434696,0
smt_37990,5.637010595481215,216.3,2.606107533740737,1.5459972824664572,0
smt_37975,5.636592855864059,216.3,2.605914404005575,1.5459295735114633,0
smt_37976,5.636140735723145,216.3,2.6057053794374223,1.5458557447930141,0
smt_37977,5.635694801910302,216.3,2.605499214937726,1.5457829489666324,0
smt_37978,5.635270361439757,216.3,2.605302987258325,1.5457154930058268,0
smt_37970,5.5882513949583,216.3,2.5835651386769762,1.5347006667036913,0
smt_37971,5.587656817731038,216.3,2.5832902532274793,1.5345963886969958,0
smt_37972,5.587349407136671,216.3,2.5831481308999864,1.534548632994131,0
smt_37989,5.5869105662028575,216.3,2.582945245586157,1.5344911276163995,0
sbt_20633,4.16383834461191,163.8,2.542025851411422,1.6777451713398506,0
smt_37964,5.47140392957669,216.3,2.529544119083074,1.5077015588567633,0
smt_37965,5.469850671637963,216.3,2.5288260155515316,1.50744502754754,0
smt_37994,5.469647811805587,216.3,2.528732229221261,1.507407524228568,0
smt_37995,5.469643011738446,216.3,2.528730010050137,1.5074067947877217,0
smt_37996,5.4696372296421245,216.3,2.5287273368664467,1.5074135023828925,0
smt_37966,5.469285740135367,216.3,2.5285648359386808,1.5073581706748451,0
smt_37967,5.468855960403094,216.3,2.5283661398072557,1.5072889602011053,0
smt_37968,5.468415188331574,216.3,2.5281623616881985,1.5072179102081387,0
smt_37969,5.467982495062381,216.3,2.5279623185679063,1.5071463198376238,0
sbt_4619,5.443882456462886,216.3,2.5168203682213988,1.1830795544222845,0
rbt_606110,1.5131211397326296,61.95,2.4424877154683284,1.1475886075908546,0
rbt_1607284,2.197129249323839,90.3,2.433144240668703,1.1439211018732973,0
rbt_1607302,1.4894104127800674,61.95,2.404213741372183,1.1295558692417054,0
rbt_607382,2.148003959958382,90.3,2.37874192686421,1.118421161061266,0
rbt_1607273,1.8224180082664518,76.65,2.3775838333547967,1.11724727778033,0
sbt_26614,3.8514700372233843,162.75,2.3664946465274252,1.7924446242514893,0
sbt_26512,3.8514684570803657,162.75,2.3664936756254167,1.7924436401852268,0
sbt_16246,3.8514678806954685,162.75,2.36649332147187,1.7924432818811704,0
sbt_5828,3.8514651496652066,163.8,2.351321825192434,1.780951577871314,0
sbt_3790,3.8242452777716607,163.8,2.3347040767836758,1.096834587543453,0
rbt_1137150,1.4375566017023873,61.95,2.3205110600522794,1.0909452752488888,0
rbt_3405843,2.0894010742554814,90.3,2.313843936052582,1.088127413793524,0
rbt_1607288,1.756382792028896,76.65,2.291432213997255,1.0770449302124403,0
rbt_605817,1.7472256861110946,76.65,2.279485565702667,1.0714981822789635,0
smt_13591,3.710526630456404,163.8,2.265278773172408,1.1230708701555467,0
sbt_30492,2.8202007681744776,124.95,2.257063439915548,1.0607524762784746,0
rbt_607387,2.027830679415836,90.3,2.2456596671271716,1.0553756023480467,0
sbt_21147,2.8731772387618184,128.1,2.242917438533816,1.053997963212778,0
sbt_17923,2.8731717744720324,128.1,2.242913172889955,1.0539936552868794,0
rbt_626695,2.0187510916681655,90.3,2.2356047526779244,1.6935855690678743,0
rbt_623432,2.0187216674990935,90.3,2.2355721677730824,1.0512143921332164,0
sbt_3473,3.637367830868583,163.8,2.2206152813605513,1.0438833508572911,0
sbt_26790,4.790656161141202,216.3,2.2148202316880266,1.0414730449613219,0
smt_18691,6.337613387917807,286.65,2.210923909966094,1.1613506725150538,0
smt_18692,6.336906339040906,286.65,2.2106772506683785,1.1611619207065018,0
smt_22142,6.33627607697017,286.65,2.2104573790232585,1.1609940635172935,0
smt_29410,6.335704104461003,286.65,2.2102578421283807,1.1608420543590687,0
smt_4821,6.335158424729066,286.65,2.2100674776658176,1.1606973208419635,0
smt_18693,6.334493900285459,286.65,2.209835653335238,1.160521446221266,0
smt_5832,6.333881537728422,286.65,2.20962202606957,1.1603597480737158,0
smt_18694,6.333240326016293,286.65,2.209398334560019,1.1601908147818556,0
smt_5643,6.332675217423145,286.65,2.209201192193667,1.1600422570176538,0
smt_29483,6.332113578311076,286.65,2.2090052601817813,1.159894914178928,0
smt_6014,6.331557323731791,286.65,2.2088112066044974,1.1597492823323183,0
smt_18695,6.330915643435312,286.65,2.208587351625785,1.1595816551513083,0
smt_29482,6.33034513156881,286.65,2.2083883242870437,1.159432952995963,0
smt_6195,6.329747187614415,286.65,2.208179727058927,1.1592774386284843,0
smt_6105,6.3291471135119215,286.65,2.2079703867126885,1.1591217189034626,0
smt_19334,6.284508115619215,286.65,2.192397737875184,1.1376354570529976,0
smt_19331,6.283886891486402,286.65,2.1921810191824185,1.1374421226956624,0
smt_22269,6.283276767153682,286.65,2.1919681727380715,1.1372525335819759,0
sbt_34896,4.684030479336033,216.3,2.1655249557725536,1.0179921694364393,0
sbt_34381,3.49825587464706,163.8,2.135687347159377,1.0040193384393499,0
smt_29480,6.081201194540084,286.65,2.121472595339293,1.1653692613694966,0
smt_19271,6.080011615885143,286.65,2.121057601913533,1.1650968098740413,0
smt_5537,6.079539266057801,286.65,2.120892819137555,1.1649890315443072,0
smt_19274,6.056823068081503,286.65,2.1129681032902505,1.1512752127431904,0
smt_4942,6.056268793945256,286.65,2.1127747406053574,1.1511471640623632,0
smt_18740,6.05572790990921,286.65,2.1125860491572337,1.1510225160612768,0
smt_5191,6.0551894653680005,286.65,2.11239820874516,1.1508987324724684,0
smt_5198,6.054656049698545,286.65,2.1122121226926724,1.1507764030553982,0
smt_5549,6.0540680954995745,286.65,2.1120070104655766,1.1506419108310826,0
smt_19273,6.053466678892143,286.65,2.111797201776432,1.1505047139811113,0
smt_5414,6.052961757627481,286.65,2.111621056210529,1.1503898235100425,0
smt_5522,6.0524002808666095,286.65,2.1114251808360756,1.1502623797386227,0
smt_40861,6.023718559293899,286.65,2.101419347390162,1.1328212620675513,0
smt_40860,6.02335677429515,286.65,2.1012931359829583,1.132737394657357,0
smt_40859,6.022976427310181,286.65,2.101160449087801,1.1326493732113463,0
smt_40858,6.022590771937222,286.65,2.101025910321724,1.1325602792902318,0
smt_40857,6.022117406590184,286.65,2.1008607732740923,1.132451137896132,0
smt_40856,6.021640257262804,286.65,2.1006943161565688,1.1323413645925275,0
smt_40855,6.021174542704903,286.65,2.100531848144044,1.1322344554366452,0
smt_40854,6.020734087669279,286.65,2.1003781921051035,1.1321335574240643,0
smt_40853,6.020258508886513,286.65,2.100212282883835,1.1320248459436761,0
smt_40852,6.019780082356583,286.65,2.100045380204634,1.1319157277131022,0
smt_22899,6.018266736937788,286.65,2.099517438317735,1.123991744541606,0
smt_5757,6.017968489750022,286.65,2.0994133925519005,1.1241875992768902,0
smt_5956,6.017699184989593,286.65,2.09931944356867,1.123844701578335,0
smt_6028,6.017377384650308,286.65,2.0992071811094744,1.124035248280145,0
smt_22898,6.016776900106277,286.65,2.0989976975776306,1.1238808329456855,0
smt_16985,6.0162884794251585,286.65,2.098827308363914,1.123755516199514,0
smt_6106,6.015725974630907,286.65,2.0986310743523138,1.1236114976240466,0
smt_6021,6.0151687373354426,286.65,2.098436677947128,1.1234691380993842,0
smt_6212,6.014626878594369,286.65,2.0982476464658535,1.1233310044406235,0
smt_6044,6.01406383499654,286.65,2.098051224488589,1.123187781365166,0
smt_6029,6.013514833133036,286.65,2.0978597010755404,1.1230484362423174,0
smt_19276,6.012966212311199,286.65,2.097668310591732,1.122909490578652,0
smt_22896,6.0123397704248935,286.65,2.0974497716465703,1.1227512067719303,0
smt_6693,6.011916945659459,286.65,2.0973022660594665,1.1226445963110623,0
smt_41231,6.011899804478023,286.65,2.097296286229905,1.1226402780767757,0
smt_41232,6.0113026827169005,286.65,2.097087975830072,1.1224900383508125,0
rbt_605808,1.893466596659263,90.3,2.0968622332882205,0.9852274344330056,0
smt_40865,6.003060399648107,286.65,2.0942125936326907,1.120453516615159,0
smt_40864,6.00259617715137,286.65,2.094050646136881,1.120340915111611,0
smt_40863,6.002125276725766,286.65,2.0938863689955576,1.1202269273855692,0
smt_40862,6.001654558701776,286.65,2.0937221554864034,1.1201132194982313,0
rbt_1607326,1.889643519812907,90.3,2.092628482627804,0.9839311112821597,0
smt_40375,3.414661792787527,163.8,2.0846531091498943,1.0378167332669654,0
smt_40374,3.414111114177306,163.8,2.0843169195221645,1.037488144796622,0
smt_40358,3.4135632512230165,163.8,2.0839824488541003,1.0371619148658178,0
smt_40357,3.4129863884325538,163.8,2.083630273768348,1.036819152044711,0
smt_40356,3.4125005030529243,163.8,2.0833336404474507,1.036531034691729,0
smt_40355,3.4119455664980674,163.8,2.0829948513419216,1.0362026331548109,0
smt_40354,3.411381641993558,163.8,2.082650575087642,1.035869638759174,0
...